/*--------------------------------*- C++ -*----------------------------------*\
| =========                 |                                                 |
| \\      /  F ield         | OpenFOAM: The Open Source CFD Toolbox           |
|  \\    /   O peration     | Version:  v2006                                 |
|   \\  /    A nd           | Website:  www.openfoam.com                      |
|    \\/     M anipulation  |                                                 |
\*---------------------------------------------------------------------------*/
FoamFile
{
    version     2.0;
    format      ascii;
    class       dictionary;
    location    "system";
    object      fvSolution;
}
// * * * * * * * * * * * * * * * * * * * * * * * * * * * * * * * * * * * * * //

solvers
{

  M
    {
      solver          PCG;
      preconditioner  DIC;
      tolerance       1e-6;
      relTol          0;
    }

  C
    {
      solver          PCG;
      preconditioner  DIC;
      tolerance       1e-6;
      relTol          0;
    }
  
  A
    {
      solver          PCG;
      preconditioner  DIC;
      tolerance       1e-6;
      relTol          0;
    }
  
  N
    {
      solver          PCG;
      preconditioner  DIC;
      tolerance       1e-6;
      relTol          0;
    }
  
  E
    {
      solver          PCG;
      preconditioner  DIC;
      tolerance       1e-6;
      relTol          0;
    }
  
  B
    {
      solver          PCG;
      preconditioner  DIC;
      tolerance       1e-6;
      relTol          0;
    }
  
  Be
    {
      solver          PCG;
      preconditioner  DIC;
      tolerance       1e-6;
      relTol          0;
    }
    
}

PIMPLE
{
    nCorrectors     2;
    nNonOrthogonalCorrectors 0;
}


// ************************************************************************* //
