FoamFile
{
    version     2.0;
    format      ascii;
    class       dictionary;
    location    "system";
    object      topoSetDict;
}

actions
(
 {
   name    inoculum;
   type    cellSet;
   action  new;
   source  labelToCell;
   value
     (
      76
      7
      97
      73
      109
      24
      );
 }
 );
